Version 4
SHEET 1 1560 948
WIRE -576 0 -752 0
WIRE -336 0 -576 0
WIRE 352 0 -336 0
WIRE 496 0 352 0
WIRE 992 0 496 0
WIRE -208 80 -240 80
WIRE 352 80 352 0
WIRE 352 80 320 80
WIRE -240 96 -240 80
WIRE -592 144 -640 144
WIRE -480 144 -592 144
WIRE -448 144 -480 144
WIRE -336 144 -336 80
WIRE -336 144 -384 144
WIRE -288 144 -336 144
WIRE -208 144 -288 144
WIRE 416 144 320 144
WIRE 496 144 496 80
WIRE 496 144 416 144
WIRE 992 192 992 80
WIRE -208 208 -224 208
WIRE 416 208 320 208
WIRE 496 208 496 144
WIRE 496 208 416 208
WIRE 1376 224 1280 224
WIRE 1472 224 1376 224
WIRE 1280 256 1280 224
WIRE -208 272 -224 272
WIRE 352 272 320 272
WIRE 992 272 992 192
WIRE -480 288 -480 144
WIRE -752 304 -752 0
WIRE -640 304 -640 144
WIRE 352 304 352 272
WIRE 1472 304 1440 304
WIRE 352 320 352 304
WIRE 1472 320 1472 304
WIRE 496 336 496 208
WIRE 752 352 704 352
WIRE 864 352 832 352
WIRE 944 352 864 352
WIRE 1280 368 1280 320
WIRE 1328 368 1280 368
WIRE -752 432 -752 384
WIRE -640 432 -640 384
WIRE -640 432 -752 432
WIRE -480 432 -480 352
WIRE -480 432 -640 432
WIRE 352 432 352 400
WIRE 352 432 -480 432
WIRE 496 432 496 400
WIRE 496 432 352 432
WIRE 864 432 496 432
WIRE 992 432 992 368
WIRE 992 432 864 432
WIRE 1472 432 1472 416
WIRE 1472 432 1280 432
WIRE 1472 448 1472 432
WIRE -752 464 -752 432
FLAG -752 464 0
FLAG -224 208 OUT
FLAG -240 96 0
FLAG -592 144 CRANK
FLAG -576 0 Vcc
FLAG -224 272 Reset
FLAG 416 144 Discharge
FLAG 1472 448 0
FLAG 1376 224 Vcc
FLAG 1440 304 Reset
FLAG -288 144 Trig
FLAG 704 352 OUT
FLAG 992 192 Injector
FLAG 352 304 AN
FLAG 416 208 THRESH
SYMBOL cap 480 336 R0
SYMATTR InstName C1
SYMATTR Value 0.1µ
SYMBOL res 480 -16 R0
SYMATTR InstName R13
SYMATTR Value 35k
SYMBOL voltage -752 288 R0
SYMATTR InstName Vcc
SYMATTR Value 15
SYMBOL NE555_sketched 48 176 R0
SYMATTR InstName X1
SYMATTR Prefix ""
SYMATTR Value NE555
SYMBOL voltage -640 288 R0
WINDOW 3 -165 225 Left 2
WINDOW 123 0 0 Left 0
WINDOW 39 0 0 Left 0
SYMATTR Value PULSE(0 15 0 1u 1u 14.9m 15m 100)
SYMATTR InstName VRcrank
SYMBOL diode -496 288 R0
SYMATTR InstName D1
SYMBOL diode -384 128 R90
WINDOW 0 0 32 VBottom 2
WINDOW 3 32 32 VTop 2
SYMATTR InstName D3
SYMBOL npn 1408 320 R0
SYMATTR InstName Q1
SYMATTR Value 2N3904
SYMBOL res 1312 384 R270
WINDOW 0 32 56 VTop 2
WINDOW 3 0 56 VBottom 2
SYMATTR InstName R4
SYMATTR Value 10k
SYMBOL diode 1296 432 R180
WINDOW 0 24 64 Left 2
WINDOW 3 24 0 Left 2
SYMATTR InstName D2
SYMATTR Value 1N4148
SYMBOL res 1456 208 R0
SYMATTR InstName R5
SYMATTR Value 100k
SYMBOL cap 1264 256 R0
SYMATTR InstName C4
SYMATTR Value 1µ
SYMBOL nmos 944 272 R0
SYMATTR InstName M1
SYMATTR Value IPB023N04N
SYMBOL res 976 -16 R0
SYMATTR InstName Injector
SYMATTR Value 15
SYMBOL res 736 368 R270
WINDOW 0 32 56 VTop 2
WINDOW 3 0 56 VBottom 2
SYMATTR InstName R2
SYMATTR Value 1k
SYMBOL res 848 336 R0
SYMATTR InstName R3
SYMATTR Value 100k
SYMBOL res -352 -16 R0
SYMATTR InstName R1
SYMATTR Value 10k
SYMBOL voltage 352 304 R0
WINDOW 123 0 0 Left 0
WINDOW 39 0 0 Left 0
WINDOW 3 -159 160 Left 2
SYMATTR Value PWL(0 1.5 15.9m 1.5 16m 1.5 100m 14)
SYMATTR InstName MAF
TEXT -1072 192 Left 2 !.tran 100m
TEXT -1072 152 Left 2 !.inc NE555.txt
TEXT -1072 16 Left 2 !.options gmin=1e-10\n.options abstol=1e-10\n.options reltol=0.003\n.options plotwinsize=0
TEXT 1296 480 Left 2 ;Start Delay
